code_generation/data/attribute_classes/output.json
{
  "name": "output",
  "include_guard": "OUTPUT",
  "classes": [
    {
      "name": "BaseOutput",
      "attributes": [
        {
          "data_type": "ID",
          "names": "id",
          "description": "ID of the object"
        },
        {
          "data_type": "IntS",
          "names": "energized",
          "description": "whether the object is energized"
        }
      ]
    },
    {
      "name": "NodeOutput",
      "base": "BaseOutput",
      "is_template": true,
      "attributes": [
        {
          "data_type": "RealValue<sym>",
          "names": [
            "u_pu",
            "u",
            "u_angle"
          ],
          "description": "voltage magnitude and angle"
        },
        {
          "data_type": "RealValue<sym>",
          "names": [
            "p",
            "q"
          ],
          "description": "node injection"
        }
      ]
    },
    {
      "name": "BranchOutput",
      "base": "BaseOutput",
      "is_template": true,
      "attributes": [
        {
          "data_type": "double",
          "names": "loading",
          "description": "loading of the branch"
        },
        {
          "data_type": "RealValue<sym>",
          "names": [
            "p_from",
            "q_from",
            "i_from",
            "s_from"
          ],
          "description": "power flow at from-side"
        },
        {
          "data_type": "RealValue<sym>",
          "names": [
            "p_to",
            "q_to",
            "i_to",
            "s_to"
          ],
          "description": "power flow at to-side"
        }
      ]
    },
    {
      "name": "Branch3Output",
      "base": "BaseOutput",
      "is_template": true,
      "attributes": [
        {
          "data_type": "double",
          "names": "loading_1",
          "description": "loading of the branch at side 1"
        },
        {
          "data_type": "double",
          "names": "loading_2",
          "description": "loading of the branch at side 2"
        },
        {
          "data_type": "double",
          "names": "loading_3",
          "description": "loading of the branch at side 3"
        },
        {
          "data_type": "double",
          "names": "loading",
          "description": "loading of the branch"
        },
        {
          "data_type": "RealValue<sym>",
          "names": [
            "p_1",
            "q_1",
            "i_1",
            "s_1"
          ],
          "description": "power flow at side 1"
        },
        {
          "data_type": "RealValue<sym>",
          "names": [
            "p_2",
            "q_2",
            "i_2",
            "s_2"
          ],
          "description": "power flow at side 2"
        },
        {
          "data_type": "RealValue<sym>",
          "names": [
            "p_3",
            "q_3",
            "i_3",
            "s_3"
          ],
          "description": "power flow at side 3"
        }
      ]
    },
    {
      "name": "ApplianceOutput",
      "base": "BaseOutput",
      "is_template": true,
      "attributes": [
        {
          "data_type": "RealValue<sym>",
          "names": [
            "p",
            "q",
            "i",
            "s",
            "pf"
          ],
          "description": "power flow of the appliance"
        }
      ]
    },
    {
      "name": "VoltageSensorOutput",
      "base": "BaseOutput",
      "is_template": true,
      "attributes": [
        {
          "data_type": "RealValue<sym>",
          "names": [
            "u_residual",
            "u_angle_residual"
          ],
          "description": "deviation between the measured value and calculated value"
        }
      ]
    },
    {
      "name": "PowerSensorOutput",
      "base": "BaseOutput",
      "is_template": true,
      "attributes": [
        {
          "data_type": "RealValue<sym>",
          "names": [
            "p_residual",
            "q_residual"
          ],
          "description": "deviation between the measured value and calculated value"
        }
      ]
    },
    {
      "name": "FaultOutput",
      "base": "BaseOutput",
      "attributes": []
    },
    {
      "name": "FaultShortCircuitOutput",
      "base": "BaseOutput",
      "is_template": false,
      "attributes": [
        {
          "data_type": "RealValue<asymmetric_t>",
          "names": "i_f",
          "description": "three phase short circuit current magnitude"
        },
        {
          "data_type": "RealValue<asymmetric_t>",
          "names": "i_f_angle",
          "description": "three phase short circuit current angle"
        }
      ]
    },
    {
      "name": "NodeShortCircuitOutput",
      "base": "BaseOutput",
      "is_template": false,
      "attributes": [
        {
          "data_type": "RealValue<asymmetric_t>",
          "names": [
            "u_pu",
            "u",
            "u_angle"
          ],
          "description": "initial three phase line-to-ground short circuit voltage magnitude and angle"
        }
      ]
    },
    {
      "name": "BranchShortCircuitOutput",
      "base": "BaseOutput",
      "is_template": false,
      "attributes": [
        {
          "data_type": "RealValue<asymmetric_t>",
          "names": [
            "i_from",
            "i_from_angle"
          ],
          "description": "initial three phase short circuit current flow at from-side"
        },
        {
          "data_type": "RealValue<asymmetric_t>",
          "names": [
            "i_to",
            "i_to_angle"
          ],
          "description": "initial three phase short circuit current flow at to-side"
        }
      ]
    },
    {
      "name": "Branch3ShortCircuitOutput",
      "base": "BaseOutput",
      "is_template": false,
      "attributes": [
        {
          "data_type": "RealValue<asymmetric_t>",
          "names": [
            "i_1",
            "i_1_angle"
          ],
          "description": "initial three phase short circuit current flow at side 1"
        },
        {
          "data_type": "RealValue<asymmetric_t>",
          "names": [
            "i_2",
            "i_2_angle"
          ],
          "description": "initial three phase short circuit current flow at side 2"
        },
        {
          "data_type": "RealValue<asymmetric_t>",
          "names": [
            "i_3",
            "i_3_angle"
          ],
          "description": "initial three phase short circuit current flow at side 3"
        }
      ]
    },
    {
      "name": "ApplianceShortCircuitOutput",
      "base": "BaseOutput",
      "is_template": false,
      "attributes": [
        {
          "data_type": "RealValue<asymmetric_t>",
          "names": [
            "i",
            "i_angle"
          ],
          "description": "initial three phase short circuit current flow of the appliance"
        }
      ]
    },
    {
      "name": "SensorShortCircuitOutput",
      "base": "BaseOutput",
      "is_template": false,
      "attributes": []
    },
    {
      "name": "TransformerTapRegulatorOutput",
      "base": "BaseOutput",
      "is_template": false,
      "attributes": [
        {
          "data_type": "IntS",
          "names": "tap_pos",
          "description": "result of regulated tap position"
        }
      ]
    },
    {
      "name": "VoltageRegulatorOutput",
      "base": "BaseOutput",
      "is_template": false,
      "attributes": [
        {
          "data_type": "IntS",
          "names": "limit_violated",
          "description": "indicates whether voltage limits are violated"
        }
      ]
    },
    {
      "name": "RegulatorShortCircuitOutput",
      "base": "BaseOutput",
      "is_template": false,
      "attributes": []
    },
    {
      "name": "CurrentSensorOutput",
      "base": "BaseOutput",
      "is_template": true,
      "attributes": [
        {
          "data_type": "RealValue<sym>",
          "names": [
            "i_residual",
            "i_angle_residual"
          ],
          "description": "deviation between the measured value and calculated value"
        }
      ]
    }
  ]
}
